<?xml version="1.0" encoding="UTF-8"?>

<!-- generated on Mon Jul 27 16:27:24 2020 by Eclipse SUMO netconvert Version 1.6.0
<configuration xmlns:xsi="http://www.w3.org/2001/XMLSchema-instance" xsi:noNamespaceSchemaLocation="http://sumo.dlr.de/xsd/netconvertConfiguration.xsd">

    <input>
        <type-files value="/usr/share/sumo/data/typemap/cataniaNetconvert.typ.xml"/>
        <catania-files value="catania_bbox.catania.xml"/>
    </input>

    <output>
        <output-file value="catania.net.xml"/>
        <output.street-names value="true"/>
        <output.original-names value="true"/>
    </output>

    <projection>
        <proj.utm value="true"/>
    </projection>

    <processing>
        <geometry.remove value="true"/>
        <roundabouts.guess value="true"/>
    </processing>

    <tls_building>
        <tls.discard-simple value="true"/>
        <tls.join value="true"/>
        <tls.guess-signals value="true"/>
        <tls.default-type value="actuated"/>
    </tls_building>

    <ramp_guessing>
        <ramps.guess value="true"/>
    </ramp_guessing>

    <edge_removal>
        <keep-edges.by-vclass value="passenger"/>
    </edge_removal>

    <junctions>
        <junctions.join value="true"/>
        <junctions.corner-detail value="5"/>
    </junctions>

    <report>
        <verbose value="true"/>
        <aggregate-warnings value="5"/>
    </report>

</configuration>
-->

<net version="1.6" junctionCornerDetail="5" limitTurnSpeed="5.50" xmlns:xsi="http://www.w3.org/2001/XMLSchema-instance" xsi:noNamespaceSchemaLocation="http://sumo.dlr.de/xsd/net_file.xsd">

    <location netOffset="-505838.34,-4151824.38" convBoundary="0.00,0.00,2081.77,2711.72" origBoundary="15.066072,37.513337,15.089638,37.537788" projParameter="+proj=utm +zone=33 +ellps=WGS84 +datum=WGS84 +units=m +no_defs"/>

    <type id="highway.bridleway" priority="1" numLanes="1" speed="2.78" allow="pedestrian" oneway="1" width="2.00"/>
    <type id="highway.bus_guideway" priority="1" numLanes="1" speed="27.78" allow="bus" oneway="1"/>
    <type id="highway.cycleway" priority="1" numLanes="1" speed="8.33" allow="bicycle" oneway="0" width="1.00"/>
    <type id="highway.footway" priority="1" numLanes="1" speed="2.78" allow="pedestrian" oneway="1" width="2.00"/>
    <type id="highway.ford" priority="1" numLanes="1" speed="2.78" allow="army" oneway="0"/>
    <type id="highway.living_street" priority="2" numLanes="1" speed="2.78" disallow="tram rail_urban rail rail_electric rail_fast ship" oneway="0"/>
    <type id="highway.motorway" priority="14" numLanes="2" speed="39.44" allow="private emergency authority army vip passenger hov taxi bus coach delivery truck trailer motorcycle evehicle custom1 custom2" oneway="1"/>
    <type id="highway.motorway_link" priority="9" numLanes="1" speed="22.22" allow="private emergency authority army vip passenger hov taxi bus coach delivery truck trailer motorcycle evehicle custom1 custom2" oneway="1"/>
    <type id="highway.path" priority="1" numLanes="1" speed="2.78" allow="pedestrian bicycle" oneway="1" width="2.00"/>
    <type id="highway.pedestrian" priority="1" numLanes="1" speed="2.78" allow="pedestrian" oneway="1" width="2.00"/>
    <type id="highway.primary" priority="12" numLanes="2" speed="27.78" disallow="tram rail_urban rail rail_electric rail_fast ship" oneway="0"/>
    <type id="highway.primary_link" priority="7" numLanes="1" speed="22.22" disallow="tram rail_urban rail rail_electric rail_fast ship" oneway="0"/>
    <type id="highway.raceway" priority="15" numLanes="2" speed="83.33" allow="vip" oneway="0"/>
    <type id="highway.residential" priority="3" numLanes="1" speed="13.89" disallow="tram rail_urban rail rail_electric rail_fast ship" oneway="0"/>
    <type id="highway.secondary" priority="11" numLanes="1" speed="27.78" disallow="tram rail_urban rail rail_electric rail_fast ship" oneway="0"/>
    <type id="highway.secondary_link" priority="6" numLanes="1" speed="22.22" disallow="tram rail_urban rail rail_electric rail_fast ship" oneway="0"/>
    <type id="highway.service" priority="1" numLanes="1" speed="5.56" allow="pedestrian delivery bicycle" oneway="0"/>
    <type id="highway.stairs" priority="1" numLanes="1" speed="1.39" allow="pedestrian" oneway="1" width="2.00"/>
    <type id="highway.step" priority="1" numLanes="1" speed="1.39" allow="pedestrian" oneway="1" width="2.00"/>
    <type id="highway.steps" priority="1" numLanes="1" speed="1.39" allow="pedestrian" oneway="1" width="2.00"/>
    <type id="highway.tertiary" priority="10" numLanes="1" speed="22.22" disallow="tram rail_urban rail rail_electric rail_fast ship" oneway="0"/>
    <type id="highway.tertiary_link" priority="5" numLanes="1" speed="22.22" disallow="tram rail_urban rail rail_electric rail_fast ship" oneway="0"/>
    <type id="highway.track" priority="1" numLanes="1" speed="5.56" disallow="tram rail_urban rail rail_electric rail_fast ship" oneway="0"/>
    <type id="highway.trunk" priority="13" numLanes="2" speed="27.78" disallow="pedestrian bicycle tram rail_urban rail rail_electric rail_fast ship" oneway="0"/>
    <type id="highway.trunk_link" priority="8" numLanes="1" speed="22.22" disallow="pedestrian bicycle tram rail_urban rail rail_electric rail_fast ship" oneway="0"/>
    <type id="highway.unclassified" priority="4" numLanes="1" speed="13.89" disallow="tram rail_urban rail rail_electric rail_fast ship" oneway="0"/>
    <type id="highway.unsurfaced" priority="1" numLanes="1" speed="8.33" disallow="tram rail_urban rail rail_electric rail_fast ship" oneway="0"/>
    <type id="railway.highspeed" priority="21" numLanes="1" speed="69.44" allow="rail_fast" oneway="1"/>
    <type id="railway.light_rail" priority="19" numLanes="1" speed="27.78" allow="rail_urban" oneway="1"/>
    <type id="railway.preserved" priority="16" numLanes="1" speed="27.78" allow="rail" oneway="1"/>
    <type id="railway.rail" priority="20" numLanes="1" speed="44.44" allow="rail" oneway="1"/>
    <type id="railway.subway" priority="18" numLanes="1" speed="27.78" allow="rail_urban" oneway="1"/>
    <type id="railway.tram" priority="17" numLanes="1" speed="13.89" allow="tram" oneway="1"/>

    <edge id=":1279096070_0" function="internal">
        <lane id=":1279096070_0_0" index="0" disallow="tram rail_urban rail rail_electric rail_fast ship" speed="3.90" length="2.61" shape="1069.42,1464.95 1070.07,1465.26 1070.46,1465.70 1070.59,1466.28 1070.46,1466.98"/>
    </edge>
    <edge id=":1280152124_0" function="internal">
        <lane id=":1280152124_0_0" index="0" disallow="tram rail_urban rail rail_electric rail_fast ship" speed="13.89" length="0.86" shape="1037.04,1465.89 1036.22,1465.63"/>
    </edge>
    <edge id=":1280152124_1" function="internal">
        <lane id=":1280152124_1_0" index="0" disallow="tram rail_urban rail rail_electric rail_fast ship" speed="13.89" length="0.18" shape="1037.20,1462.58 1037.20,1462.76"/>
    </edge>
    <edge id=":1369987884_0" function="internal">
        <lane id=":1369987884_0_0" index="0" disallow="tram rail_urban rail rail_electric rail_fast ship" speed="6.31" length="17.43" shape="1556.18,1055.15 1554.60,1057.66 1551.78,1055.73 1549.00,1051.13 1547.53,1045.65"/>
    </edge>
    <edge id=":1369987884_1" function="internal">
        <lane id=":1369987884_1_0" index="0" disallow="tram rail_urban rail rail_electric rail_fast ship" speed="6.34" length="17.67" shape="1550.73,1045.42 1551.41,1052.71 1552.11,1055.67 1552.85,1054.29 1553.61,1048.59"/>
    </edge>
    <edge id=":1371265596_0" function="internal">
        <lane id=":1371265596_0_0" index="0" disallow="tram rail_urban rail rail_electric rail_fast ship" speed="13.89" length="0.10" shape="1559.74,1018.99 1559.74,1018.99"/>
    </edge>
    <edge id=":1371265596_1" function="internal">
        <lane id=":1371265596_1_0" index="0" disallow="tram rail_urban rail rail_electric rail_fast ship" speed="13.89" length="0.10" shape="1556.56,1018.68 1556.56,1018.68"/>
    </edge>
    <edge id=":1419137348_0" function="internal">
        <lane id=":1419137348_0_0" index="0" disallow="tram rail_urban rail rail_electric rail_fast ship" speed="13.89" length="14.43" shape="1034.62,1114.36 1020.81,1110.16"/>
    </edge>
    <edge id=":1419137348_1" function="internal">
        <lane id=":1419137348_1_0" index="0" disallow="tram rail_urban rail rail_electric rail_fast ship" speed="8.05" length="5.84" shape="1034.62,1114.36 1031.13,1112.72 1029.82,1111.23"/>
    </edge>
    <edge id=":1419137348_2" function="internal">
        <lane id=":1419137348_2_0" index="0" disallow="tram rail_urban rail rail_electric rail_fast ship" speed="3.65" length="2.34" shape="1034.62,1114.36 1033.70,1113.25 1033.55,1112.37"/>
    </edge>
    <edge id=":1419137348_9" function="internal">
        <lane id=":1419137348_9_0" index="0" disallow="tram rail_urban rail rail_electric rail_fast ship" speed="8.05" length="8.53" shape="1029.82,1111.23 1029.00,1110.30 1028.25,1107.11 1028.87,1103.14"/>
    </edge>
    <edge id=":1419137348_10" function="internal">
        <lane id=":1419137348_10_0" index="0" disallow="tram rail_urban rail rail_electric rail_fast ship" speed="3.65" length="2.34" shape="1033.55,1112.37 1034.16,1111.72 1035.54,1111.30"/>
    </edge>
    <edge id=":1419137348_3" function="internal">
        <lane id=":1419137348_3_0" index="0" disallow="tram rail_urban rail rail_electric rail_fast ship" speed="6.52" length="9.06" shape="1031.88,1104.25 1031.50,1106.74 1031.98,1108.74 1033.33,1110.26 1035.54,1111.30"/>
    </edge>
    <edge id=":1419137348_4" function="internal">
        <lane id=":1419137348_4_0" index="0" disallow="tram rail_urban rail rail_electric rail_fast ship" speed="8.02" length="14.34" shape="1031.88,1104.25 1030.23,1107.82 1027.83,1109.99 1024.69,1110.77 1020.81,1110.16"/>
    </edge>
    <edge id=":1419137348_5" function="internal">
        <lane id=":1419137348_5_0" index="0" disallow="tram rail_urban rail rail_electric rail_fast ship" speed="3.65" length="4.68" shape="1031.88,1104.25 1030.71,1105.10 1029.82,1105.20 1029.21,1104.55 1028.87,1103.14"/>
    </edge>
    <edge id=":1419137348_6" function="internal">
        <lane id=":1419137348_6_0" index="0" disallow="tram rail_urban rail rail_electric rail_fast ship" speed="6.58" length="9.31" shape="1021.75,1107.10 1024.23,1107.48 1026.25,1106.95 1027.79,1105.50 1028.87,1103.14"/>
    </edge>
    <edge id=":1419137348_7" function="internal">
        <lane id=":1419137348_7_0" index="0" disallow="tram rail_urban rail rail_electric rail_fast ship" speed="13.89" length="14.42" shape="1021.75,1107.10 1035.54,1111.30"/>
    </edge>
    <edge id=":1419137348_8" function="internal">
        <lane id=":1419137348_8_0" index="0" disallow="tram rail_urban rail rail_electric rail_fast ship" speed="3.65" length="2.34" shape="1021.75,1107.10 1022.66,1108.22 1022.81,1109.10"/>
    </edge>
    <edge id=":1419137348_11" function="internal">
        <lane id=":1419137348_11_0" index="0" disallow="tram rail_urban rail rail_electric rail_fast ship" speed="3.65" length="2.34" shape="1022.81,1109.10 1022.19,1109.75 1020.81,1110.16"/>
    </edge>
    <edge id=":1430605396_0" function="internal">
        <lane id=":1430605396_0_0" index="0" disallow="tram rail_urban rail rail_electric rail_fast ship" speed="6.07" length="7.85" shape="485.46,1024.05 484.76,1026.09 483.58,1027.41 481.91,1027.99 479.76,1027.85"/>
    </edge>
    <edge id=":1430605396_1" function="internal">
        <lane id=":1430605396_1_0" index="0" disallow="tram rail_urban rail rail_electric rail_fast ship" speed="3.90" length="2.62" shape="480.42,1024.72 481.14,1024.76 481.69,1024.57 482.09,1024.13 482.32,1023.45"/>
    </edge>
    <edge id=":157072527#3-AddedOffRampNode_0" function="internal">
        <lane id=":157072527#3-AddedOffRampNode_0_0" index="0" disallow="tram rail_urban rail rail_electric rail_fast ship" speed="27.78" length="8.27" shape="878.19,1084.28 878.33,1086.79 879.19,1088.47 880.06,1090.15 880.20,1092.66"/>
        <lane id=":157072527#3-AddedOffRampNode_0_1" index="1" disallow="tram rail_urban rail rail_electric rail_fast ship" speed="27.78" length="8.27" shape="878.19,1084.28 877.03,1092.20"/>
        <lane id=":157072527#3-AddedOffRampNode_0_2" index="2" disallow="tram rail_urban rail rail_electric rail_fast ship" speed="27.78" length="8.27" shape="875.03,1083.82 873.86,1091.73"/>
    </edge>
    <edge id=":1655223923_0" function="internal">
        <lane id=":1655223923_0_0" index="0" disallow="tram rail_urban rail rail_electric rail_fast ship" speed="6.16" length="9.61" shape="536.68,1343.17 534.53,1341.26 532.51,1340.63 530.61,1341.28 528.84,1343.20"/>
    </edge>
    <edge id=":1655223923_1" function="internal">
        <lane id=":1655223923_1_0" index="0" disallow="tram rail_urban rail rail_electric rail_fast ship" speed="8.33" length="14.76" shape="536.68,1343.17 526.89,1332.11"/>
    </edge>
    <edge id=":1655223923_2" function="internal">
        <lane id=":1655223923_2_0" index="0" disallow="tram rail_urban rail rail_electric rail_fast ship" speed="3.65" length="4.67" shape="536.68,1343.17 536.50,1341.73 536.84,1340.91 537.70,1340.69 539.09,1341.07"/>
    </edge>
    <edge id=":1655223923_3" function="internal">
        <lane id=":1655223923_3_0" index="0" disallow="tram rail_urban rail rail_electric rail_fast ship" speed="8.33" length="14.82" shape="529.27,1329.97 539.09,1341.07"/>
    </edge>
    <edge id=":1655223923_4" function="internal">
        <lane id=":1655223923_4_0" index="0" disallow="tram rail_urban rail rail_electric rail_fast ship" speed="8.88" length="14.35" shape="529.27,1329.97 531.05,1332.81 531.57,1335.96 530.84,1339.42 528.84,1343.20"/>
    </edge>
    <edge id=":1655223923_5" function="internal">
        <lane id=":1655223923_5_0" index="0" disallow="tram rail_urban rail rail_electric rail_fast ship" speed="3.65" length="4.67" shape="529.27,1329.97 529.48,1331.40 529.15,1332.23 528.29,1332.47 526.89,1332.11"/>
    </edge>
    <edge id=":1655223923_6" function="internal">
        <lane id=":1655223923_6_0" index="0" disallow="tram rail_urban rail rail_electric rail_fast ship" speed="5.12" length="6.46" shape="529.35,1337.48 529.83,1336.87 529.59,1335.77 528.61,1334.18 526.89,1332.11"/>
    </edge>
    <edge id=":1655223923_7" function="internal">
        <lane id=":1655223923_7_0" index="0" disallow="tram rail_urban rail rail_electric rail_fast ship" speed="8.10" length="11.15" shape="529.35,1337.48 531.76,1336.92 534.19,1337.33 536.64,1338.72 539.09,1341.07"/>
    </edge>
    <edge id=":1655223923_8" function="internal">
        <lane id=":1655223923_8_0" index="0" disallow="tram rail_urban rail rail_electric rail_fast ship" speed="4.94" length="8.38" shape="529.35,1337.48 531.36,1339.10 531.95,1340.59 531.11,1341.96 528.84,1343.20"/>
    </edge>
    <edge id=":1655223927_0" function="internal">
        <lane id=":1655223927_0_0" index="0" disallow="tram rail_urban rail rail_electric rail_fast ship" speed="4.97" length="8.50" shape="528.72,1343.36 526.66,1341.75 526.04,1340.24 526.88,1338.85 529.16,1337.56"/>
    </edge>
    <edge id=":1655273632_0" function="internal">
        <lane id=":1655273632_0_0" index="0" disallow="tram rail_urban rail rail_electric rail_fast ship" speed="8.03" length="1.47" shape="1414.77,943.55 1414.21,942.19"/>
    </edge>
    <edge id=":1655273632_1" function="internal">
        <lane id=":1655273632_1_0" index="0" disallow="tram rail_urban rail rail_electric rail_fast ship" speed="3.65" length="1.62" shape="1414.77,943.55 1414.75,942.11 1414.84,941.95"/>
    </edge>
    <edge id=":1655273632_4" function="internal">
        <lane id=":1655273632_4_0" index="0" disallow="tram rail_urban rail rail_electric rail_fast ship" speed="8.03" length="6.99" shape="1414.21,942.19 1414.17,942.09 1414.11,940.26 1414.59,938.05 1415.62,935.46"/>
    </edge>
    <edge id=":1655273632_5" function="internal">
        <lane id=":1655273632_5_0" index="0" disallow="tram rail_urban rail rail_electric rail_fast ship" speed="3.65" length="3.05" shape="1414.84,941.95 1415.18,941.33 1416.07,941.20 1417.41,941.74"/>
    </edge>
    <edge id=":1655273632_2" function="internal">
        <lane id=":1655273632_2_0" index="0" disallow="tram rail_urban rail rail_electric rail_fast ship" speed="13.89" length="9.48" shape="1410.41,943.32 1412.23,941.18 1413.42,939.65 1414.40,937.98 1415.62,935.46"/>
    </edge>
    <edge id=":1655273632_3" function="internal">
        <lane id=":1655273632_3_0" index="0" disallow="tram rail_urban rail rail_electric rail_fast ship" speed="5.87" length="8.58" shape="1410.41,943.32 1412.53,941.25 1414.40,940.30 1416.03,940.46 1417.41,941.74"/>
    </edge>
    <edge id=":1655281149_0" function="internal">
        <lane id=":1655281149_0_0" index="0" disallow="tram rail_urban rail rail_electric rail_fast ship" speed="3.65" length="4.67" shape="957.50,1194.30 956.16,1194.83 955.27,1194.71 954.84,1193.93 954.86,1192.49"/>
    </edge>
    <edge id=":1655286018_0" function="internal">
        <lane id=":1655286018_0_0" index="0" disallow="tram rail_urban rail rail_electric rail_fast ship" speed="27.78" length="8.20" shape="813.17,1309.13 806.06,1305.02"/>
        <lane id=":1655286018_0_1" index="1" disallow="tram rail_urban rail rail_electric rail_fast ship" speed="27.78" length="8.20" shape="814.76,1306.35 807.67,1302.25"/>
    </edge>
    <edge id=":1655286018_2" function="internal">
        <lane id=":1655286018_2_0" index="0" disallow="tram rail_urban rail rail_electric rail_fast ship" speed="19.45" length="8.24" shape="810.07,1314.51 802.84,1310.55"/>
        <lane id=":1655286018_2_1" index="1" disallow="tram rail_urban rail rail_electric rail_fast ship" speed="19.45" length="8.24" shape="811.67,1311.73 804.45,1307.78"/>
    </edge>
    <edge id=":1655286509_0" function="internal">
        <lane id=":1655286509_0_0" index="0" disallow="tram rail_urban rail rail_electric rail_fast ship" speed="27.78" length="7.87" shape="840.83,1300.30 847.63,1304.51"/>
        <lane id=":1655286509_0_1" index="1" disallow="tram rail_urban rail rail_electric rail_fast ship" speed="27.78" length="7.87" shape="839.26,1303.09 845.84,1307.16"/>
    </edge>
    <edge id=":1655286509_2" function="internal">
        <lane id=":1655286509_2_0" index="0" disallow="tram rail_urban rail rail_electric rail_fast ship" speed="27.78" length="7.36" shape="837.69,1305.88 839.62,1306.97 840.93,1307.75 842.19,1308.59 844.01,1309.88"/>
        <lane id=":1655286509_2_1" index="1" disallow="tram rail_urban rail rail_electric rail_fast ship" speed="27.78" length="7.36" shape="836.12,1308.67 837.98,1309.72 839.25,1310.48 840.47,1311.29 842.22,1312.53"/>
    </edge>
    <edge id=":1681880776_0" function="internal">
        <lane id=":1681880776_0_0" index="0" disallow="tram rail_urban rail rail_electric rail_fast ship" speed="3.65" length="4.67" shape="400.19,1611.09 398.75,1611.05 397.98,1610.59 397.90,1609.70 398.49,1608.38"/>
    </edge>
    <edge id=":1683127533_0" function="internal">
        <lane id=":1683127533_0_0" index="0" disallow="tram rail_urban rail rail_electric rail_fast ship" speed="3.65" length="4.67" shape="1156.54,960.46 1157.56,959.44 1158.43,959.21 1159.13,959.76 1159.67,961.10"/>
    </edge>
    <edge id=":1688666372_0" function="internal">
        <lane id=":1688666372_0_0" index="0" disallow="tram rail_urban rail rail_electric rail_fast ship" speed="5.99" length="9.08" shape="305.64,1226.08 306.46,1223.61 306.19,1221.69 304.83,1220.31 302.37,1219.47"/>
    </edge>
    <edge id=":1688666372_1" function="internal">
        <lane id=":1688666372_1_0" index="0" disallow="tram rail_urban rail rail_electric rail_fast ship" speed="27.78" length="11.30" shape="305.64,1226.08 310.76,1215.98"/>
        <lane id=":1688666372_1_1" index="1" disallow="tram rail_urban rail rail_electric rail_fast ship" speed="27.78" length="11.30" shape="308.50,1227.51 313.60,1217.44"/>
    </edge>
    <edge id=":1688685293_0" function="internal">
        <lane id=":1688685293_0_0" index="0" disallow="tram rail_urban rail rail_electric rail_fast ship" speed="5.56" length="7.36" shape="330.86,1222.69 331.43,1223.66 332.63,1224.63 334.45,1225.61 336.90,1226.59"/>
    </edge>
    <edge id=":1688685293_1" function="internal">
        <lane id=":1688685293_1_0" index="0" disallow="tram rail_urban rail rail_electric rail_fast ship" speed="5.56" length="6.74" shape="330.32,1226.86 332.27,1226.39 333.66,1226.07 335.01,1226.07 336.90,1226.59"/>
    </edge>
    <edge id=":1688702112_0" function="internal">
        <lane id=":1688702112_0_0" index="0" disallow="tram rail_urban rail rail_electric rail_fast ship" speed="27.78" length="10.47" shape="294.55,1292.28 292.84,1281.89"/>
        <lane id=":1688702112_0_1" index="1" disallow="tram rail_urban rail rail_electric rail_fast ship" speed="27.78" length="10.47" shape="297.70,1291.71 296.00,1281.43"/>
    </edge>
    <edge id=":1688702112_2" function="internal">
        <lane id=":1688702112_2_0" index="0" disallow="tram rail_urban rail rail_electric rail_fast ship" speed="6.40" length="8.75" shape="288.34,1288.10 290.61,1287.44 292.11,1286.18 292.85,1284.33 292.84,1281.89"/>
    </edge>
    <edge id=":1689115088_0" function="internal">
        <lane id=":1689115088_0_0" index="0" disallow="tram rail_urban rail rail_electric rail_fast ship" speed="11.11" length="0.15" shape="589.68,1418.16 589.59,1418.04"/>
    </edge>
    <edge id=":1689115088_1" function="internal">
        <lane id=":1689115088_1_0" index="0" disallow="tram rail_urban rail rail_electric rail_fast ship" speed="11.11" length="0.24" shape="592.24,1416.24 592.09,1416.05"/>
    </edge>
    <edge id=":1689193933_0" function="internal">
        <lane id=":1689193933_0_0" index="0" disallow="tram rail_urban rail rail_electric rail_fast ship" speed="27.78" length="8.48" shape="1015.69,1583.73 1017.34,1581.74 1018.52,1580.42 1019.79,1579.18 1021.69,1577.43"/>
        <lane id=":1689193933_0_1" index="1" disallow="tram rail_urban rail rail_electric rail_fast ship" speed="27.78" length="8.48" shape="1018.17,1585.75 1019.73,1583.86 1020.85,1582.62 1022.05,1581.44 1023.85,1579.78"/>
    </edge>
    <edge id=":1689193933_2" function="internal">
        <lane id=":1689193933_2_0" index="0" disallow="tram rail_urban rail rail_electric rail_fast ship" speed="27.78" length="7.58" shape="1020.66,1587.77 1025.80,1581.90"/>
        <lane id=":1689193933_2_1" index="1" disallow="tram rail_urban rail rail_electric rail_fast ship" speed="27.78" length="7.58" shape="1023.14,1589.79 1027.98,1584.26"/>
    </edge>
    <edge id=":1763638740_0" function="internal">
        <lane id=":1763638740_0_0" index="0" disallow="tram rail_urban rail rail_electric rail_fast ship" speed="3.65" length="4.67" shape="154.69,1072.90 155.91,1073.65 156.34,1074.44 155.97,1075.25 154.80,1076.10"/>
    </edge>
    <edge id=":1763638743_0" function="internal">
        <lane id=":1763638743_0_0" index="0" disallow="tram rail_urban rail rail_electric rail_fast ship" speed="6.49" length="9.03" shape="130.55,1082.62 130.13,1080.17 129.02,1078.46 127.24,1077.47 124.78,1077.21"/>
    </edge>
    <edge id=":1763638743_1" function="internal">
        <lane id=":1763638743_1_0" index="0" disallow="tram rail_urban rail rail_electric rail_fast ship" speed="8.03" length="14.20" shape="130.55,1082.62 130.98,1078.74 132.55,1075.93 135.23,1074.17 139.05,1073.48"/>
    </edge>
    <edge id=":1763638743_2" function="internal">
        <lane id=":1763638743_2_0" index="0" disallow="tram rail_urban rail rail_electric rail_fast ship" speed="3.65" length="4.67" shape="130.55,1082.62 131.31,1081.39 132.10,1080.97 132.91,1081.35 133.75,1082.52"/>
    </edge>
    <edge id=":1763638743_3" function="internal">
        <lane id=":1763638743_3_0" index="0" disallow="tram rail_urban rail rail_electric rail_fast ship" speed="6.54" length="9.07" shape="139.17,1076.68 136.73,1077.12 135.02,1078.24 134.03,1080.04 133.75,1082.52"/>
    </edge>
    <edge id=":1763638743_4" function="internal">
        <lane id=":1763638743_4_0" index="0" disallow="tram rail_urban rail rail_electric rail_fast ship" speed="13.89" length="14.40" shape="139.17,1076.68 124.78,1077.21"/>
    </edge>
    <edge id=":1763638743_5" function="internal">
        <lane id=":1763638743_5_0" index="0" disallow="tram rail_urban rail rail_electric rail_fast ship" speed="3.65" length="2.34" shape="139.17,1076.68 137.94,1075.92 137.51,1075.14"/>
    </edge>
    <edge id=":1763638743_9" function="internal">
        <lane id=":1763638743_9_0" index="0" disallow="tram rail_urban rail rail_electric rail_fast ship" speed="3.65" length="2.34" shape="137.51,1075.14 137.88,1074.33 139.05,1073.48"/>
    </edge>
    <edge id=":1763638743_6" function="internal">
        <lane id=":1763638743_6_0" index="0" disallow="tram rail_urban rail rail_electric rail_fast ship" speed="13.89" length="14.40" shape="124.66,1074.01 139.05,1073.48"/>
    </edge>
    <edge id=":1763638743_7" function="internal">
        <lane id=":1763638743_7_0" index="0" disallow="tram rail_urban rail rail_electric rail_fast ship" speed="7.99" length="5.93" shape="124.66,1074.01 128.54,1074.42 130.31,1075.41"/>
    </edge>
    <edge id=":1763638743_8" function="internal">
        <lane id=":1763638743_8_0" index="0" disallow="tram rail_urban rail rail_electric rail_fast ship" speed="3.65" length="2.34" shape="124.66,1074.01 125.89,1074.77 126.32,1075.55"/>
    </edge>
    <edge id=":1763638743_10" function="internal">
        <lane id=":1763638743_10_0" index="0" disallow="tram rail_urban rail rail_electric rail_fast ship" speed="7.99" length="8.29" shape="130.31,1075.41 131.35,1075.98 133.08,1078.68 133.75,1082.52"/>
    </edge>
    <edge id=":1763638743_11" function="internal">
        <lane id=":1763638743_11_0" index="0" disallow="tram rail_urban rail rail_electric rail_fast ship" speed="3.65" length="2.34" shape="126.32,1075.55 125.95,1076.37 124.78,1077.21"/>
    </edge>
    <edge id=":1763638749_0" function="internal">
        <lane id=":1763638749_0_0" index="0" disallow="tram rail_urban rail rail_electric rail_fast ship" speed="3.65" length="4.67" shape="0.06,1081.82 -1.17,1081.07 -1.60,1080.28 -1.23,1079.47 -0.06,1078.62"/>
    </edge>
    <edge id=":1763638903_0" function="internal">
        <lane id=":1763638903_0_0" index="0" disallow="tram rail_urban rail rail_electric rail_fast ship" speed="3.65" length="4.67" shape="135.35,1137.26 134.58,1138.49 133.80,1138.91 132.98,1138.53 132.15,1137.36"/>
    </edge>
    <edge id=":1763638979_0" function="internal">
        <lane id=":1763638979_0_0" index="0" disallow="tram rail_urban rail rail_electric rail_fast ship" speed="3.65" length="4.67" shape="157.30,1174.14 158.39,1175.07 158.69,1175.92 158.20,1176.66 156.91,1177.31"/>
    </edge>
    <edge id=":179710696-AddedOffRampNode_0" function="internal">
        <lane id=":179710696-AddedOffRampNode_0_0" index="0" disallow="tram rail_urban rail rail_electric rail_fast ship" speed="27.78" length="8.92" shape="526.22,1134.57 529.06,1134.99 531.26,1133.69 533.47,1132.40 536.31,1132.82"/>
        <lane id=":179710696-AddedOffRampNode_0_1" index="1" disallow="tram rail_urban rail rail_electric rail_fast ship" speed="27.78" length="8.92" shape="526.22,1134.57 528.62,1135.31 530.49,1135.09 532.37,1134.87 534.77,1135.62"/>
        <lane id=":179710696-AddedOffRampNode_0_2" index="2" disallow="tram rail_urban rail rail_electric rail_fast ship" speed="27.78" length="8.92" shape="526.22,1134.57 533.23,1138.42"/>
        <lane id=":179710696-AddedOffRampNode_0_3" index="3" disallow="tram rail_urban rail rail_electric rail_fast ship" speed="27.78" length="8.92" shape="524.67,1137.37 531.68,1141.23"/>
    </edge>
    <edge id=":179710696-AddedOnRampNode_0" function="internal">
        <lane id=":179710696-AddedOnRampNode_0_0" index="0" disallow="tram rail_urban rail rail_electric rail_fast ship" speed="27.78" length="8.00" shape="465.10,1104.11 472.42,1107.32"/>
        <lane id=":179710696-AddedOnRampNode_0_1" index="1" disallow="tram rail_urban rail rail_electric rail_fast ship" speed="27.78" length="8.00" shape="463.81,1107.04 471.14,1110.25"/>
    </edge>
    <edge id=":179710698-AddedOnRampNode_0" function="internal">
        <lane id=":179710698-AddedOnRampNode_0_0" index="0" disallow="tram rail_urban rail rail_electric rail_fast ship" speed="27.78" length="0.10" shape="449.05,1117.38 449.05,1117.38"/>
        <lane id=":179710698-AddedOnRampNode_0_1" index="1" disallow="tram rail_urban rail rail_electric rail_fast ship" speed="27.78" length="0.10" shape="450.18,1114.39 450.18,1114.39"/>
        <lane id=":179710698-AddedOnRampNode_0_2" index="2" disallow="tram rail_urban rail rail_electric rail_fast ship" speed="27.78" length="0.10" shape="451.32,1111.40 451.32,1111.40"/>
        <lane id=":179710698-AddedOnRampNode_0_3" index="3" disallow="tram rail_urban rail rail_electric rail_fast ship" speed="27.78" length="0.10" shape="452.45,1108.41 452.45,1108.41"/>
    </edge>
    <edge id=":179751012#0-AddedOnRampNode_0" function="internal">
        <lane id=":179751012#0-AddedOnRampNode_0_0" index="0" disallow="tram rail_urban rail rail_electric rail_fast ship" speed="27.78" length="0.10" shape="1134.48,1413.44 1134.48,1413.44"/>
        <lane id=":179751012#0-AddedOnRampNode_0_1" index="1" disallow="tram rail_urban rail rail_electric rail_fast ship" speed="27.78" length="0.10" shape="1133.48,1416.48 1133.48,1416.48"/>
        <lane id=":179751012#0-AddedOnRampNode_0_2" index="2" disallow="tram rail_urban rail rail_electric rail_fast ship" speed="27.78" length="0.10" shape="1132.49,1419.52 1132.49,1419.52"/>
        <lane id=":179751012#0-AddedOnRampNode_0_3" index="3" disallow="tram rail_urban rail rail_electric rail_fast ship" speed="27.78" length="0.10" shape="1131.49,1422.57 1131.49,1422.57"/>
    </edge>
    <edge id=":179751018#0-AddedOffRampNode_0" function="internal">