<?xml version="1.0" encoding="UTF-8"?>

<!-- generated on Mon Jul 27 16:27:24 2020 by Eclipse SUMO polyconvert Version 1.6.0
<configuration xmlns:xsi="http://www.w3.org/2001/XMLSchema-instance" xsi:noNamespaceSchemaLocation="http://sumo.dlr.de/xsd/polyconvertConfiguration.xsd">

    <input>
        <net-file value="catania.net.xml"/>
        <catania-files value="catania_bbox.catania.xml"/>
        <catania.keep-full-type value="true"/>
        <type-file value="/usr/share/sumo/data/typemap/cataniaPolyconvert.typ.xml"/>
    </input>

    <output>
        <output-file value="catania.poly.xml"/>
    </output>

    <processing>
        <poi-layer-offset value="5"/>
    </processing>

    <report>
        <verbose value="true"/>
    </report>

</configuration>
-->

<additional xmlns:xsi="http://www.w3.org/2001/XMLSchema-instance" xsi:noNamespaceSchemaLocation="http://sumo.dlr.de/xsd/additional_file.xsd">
    <location netOffset="-505838.34,-4151824.38" convBoundary="-228.91,-257.47,2893.99,2812.80" origBoundary="15.063481,37.511009,15.098814,37.538702" projParameter="+proj=utm +zone=33 +ellps=WGS84 +datum=WGS84 +units=m +no_defs"/>

    <poly id="107196471" type="leisure.garden" color="207,245,201" fill="1" layer="-2.00" shape="1742.834310,1369.010985 1739.380958,1367.343687 1739.241282,1365.479713 1739.032141,1362.273263 1741.857115,1355.375169 1741.486863,1354.431813 1748.441006,1334.845581 1760.387476,1334.667891 1761.155469,1335.478479 1765.847516,1335.349638 1765.920524,1342.472261 1767.368919,1343.250189 1759.015620,1366.152330 1756.530144,1368.956923 1742.834310,1369.010985"/>
    <poly id="107196479" type="leisure.garden" color="207,245,201" fill="1" layer="-2.00" shape="1797.430391,1341.791113 1769.361002,1338.903037 1768.998450,1329.550190 1767.743470,1329.837494 1767.527084,1315.248259 1766.661477,1314.892449 1766.385230,1307.780734 1768.293745,1307.860141 1768.989435,1300.782599 1789.222953,1301.943858 1789.347706,1300.801257 1797.378947,1301.607423 1797.562068,1304.259134 1796.516407,1307.531000 1797.117758,1316.606709 1795.889304,1316.871844 1796.423788,1331.405900 1797.695839,1331.773182 1797.430391,1341.791113"/>
    <poly id="107196480" type="leisure.garden" color="207,245,201" fill="1" layer="-2.00" shape="1765.603305,1331.854703 1749.495186,1331.895453 1758.122136,1309.293101 1759.298355,1308.173649 1761.693461,1307.587839 1763.566582,1307.722684 1763.954351,1318.495628 1765.084805,1319.106850 1765.603305,1331.854703"/>
    <poly id="107196481" type="leisure.garden" color="207,245,201" fill="1" layer="-2.00" shape="1773.752991,1280.484348 1773.959682,1286.353434 1772.846469,1286.208189 1772.104613,1295.449081 1770.337563,1295.269954 1770.042927,1298.597982 1785.019077,1299.665665 1787.591031,1298.946893 1797.354212,1299.676988 1796.764571,1297.091469 1795.439457,1296.768516 1795.656239,1282.013264 1773.752991,1280.484348"/>
    <poly id="107196485" type="leisure.garden" color="207,245,201" fill="1" layer="-2.00" shape="1800.363712,1342.048978 1800.205620,1321.779502 1801.257108,1321.780468 1801.069445,1314.458041 1799.929616,1314.434805 1799.923839,1311.106503 1800.314613,1308.943468 1801.366296,1308.733643 1801.318960,1302.554061 1799.940403,1302.697020 1799.594240,1294.775355 1798.500475,1292.699711 1798.739601,1282.482059 1813.397148,1284.126405 1813.397771,1283.449652 1825.175244,1284.558841 1825.368737,1285.535319 1839.037146,1286.624083 1839.648996,1332.111378 1837.466509,1332.098268 1837.690681,1338.122693 1839.669642,1338.457351 1840.095411,1346.245960 1800.363712,1342.048978"/>
    <poly id="112770033" type="waterway.drain" color="181,209,209" fill="0" layer="-4.00" shape="1485.446100,1434.480789 1474.621039,1355.346534"/>
    <poly id="119943351" type="building.yes" color="255,230,230" fill="1" layer="-1.00" shape="1746.268284,1198.250290 1744.110793,1209.542341 1767.054331,1213.878995 1769.211852,1202.586949 1746.268284,1198.250290"/>
    <poly id="119943355" type="building.yes" color="255,230,230" fill="1" layer="-1.00" shape="1805.085994,1510.809115 1821.005709,1513.486410 1822.518394,1501.994080 1820.186008,1501.692384 1821.342888,1492.773611 1811.500904,1491.510887 1810.459727,1499.531128 1806.616584,1499.039441 1805.085994,1510.809115"/>
    <poly id="119943356" type="building.yes" color="255,230,230" fill="1" layer="-1.00" shape="1721.167231,1205.205752 1744.110793,1209.542341 1746.268284,1198.250290 1723.324692,1193.913694 1721.167231,1205.205752"/>
    <poly id="119943359" type="building.yes" color="255,230,230" fill="1" layer="-1.00" shape="1736.596816,1542.731356 1746.818164,1544.571243 1750.574619,1523.861562 1740.353247,1522.021671 1736.596816,1542.731356"/>
    <poly id="119943364" type="building.yes" color="255,230,230" fill="1" layer="-1.00" shape="1679.171672,1544.110384 1692.883089,1546.042116 1696.786968,1518.509533 1683.075507,1516.577795 1679.171672,1544.110384"/>
    <poly id="119943368" type="building.yes" color="255,230,230" fill="1" layer="-1.00" shape="1672.828652,1582.013968 1686.681329,1584.001289 1690.344635,1558.642973 1676.491906,1556.666739 1672.828652,1582.013968"/>
    <poly id="119943380" type="building.yes" color="255,230,230" fill="1" layer="-1.00" shape="1791.932664,1064.527854 1791.308257,1070.917609 1794.824799,1071.253667 1793.825701,1081.526090 1807.706285,1082.870165 1808.696492,1072.675396 1812.221869,1073.011470 1812.846373,1066.532961 1791.932664,1064.527854"/>
    <poly id="119943387" type="building.yes" color="255,230,230" fill="1" layer="-1.00" shape="1654.142197,1178.829333 1652.118968,1188.346437 1677.261966,1193.627842 1679.276385,1184.110735 1654.142197,1178.829333"/>
    <poly id="119943395" type="building.yes" color="255,230,230" fill="1" layer="-1.00" shape="1716.228616,1593.169822 1739.269162,1596.563474 1742.611913,1574.078318 1719.580153,1570.673571 1716.228616,1593.169822"/>
    <poly id="119943397" type="building.yes" color="255,230,230" fill="1" layer="-1.00" shape="1737.908981,1237.339058 1740.101275,1226.623941 1714.507693,1221.430691 1712.315441,1232.134720 1724.913437,1234.697869 1737.908981,1237.339058"/>
    <poly id="119943400" type="building.yes" color="255,230,230" fill="1" layer="-1.00" shape="1740.101275,1226.623941 1737.908981,1237.339058 1739.234157,1237.606530 1749.049276,1239.601368 1752.318042,1240.258917 1755.586798,1240.927563 1758.864400,1241.585123 1762.133155,1242.253771 1762.869820,1238.682072 1763.597639,1235.121460 1764.334305,1231.549762 1752.186877,1229.075720 1740.101275,1226.623941"/>
    <poly id="119943402" type="building.yes" color="255,230,230" fill="1" layer="-1.00" shape="1641.262817,1115.702141 1632.331510,1113.308831 1630.558378,1119.852886 1639.489668,1122.257289 1641.262817,1115.702141"/>
    <poly id="119943405" type="building.yes" color="255,230,230" fill="1" layer="-1.00" shape="1747.656673,1042.121180 1746.070393,1056.819706 1740.530560,1056.226654 1739.924593,1061.817639 1741.338271,1061.963154 1739.841138,1075.818595 1730.616946,1074.822796 1731.588246,1065.881658 1733.346499,1066.071863 1734.014871,1059.870747 1722.740828,1058.662298 1723.899248,1048.001711 1737.364501,1049.445139 1738.264564,1041.114125 1747.656673,1042.121180"/>
    <poly id="119943406" type="building.yes" color="255,230,230" fill="1" layer="-1.00" shape="1774.972779,1492.253949 1790.804364,1494.731407 1791.817518,1488.342004 1775.985921,1485.864544 1774.972779,1492.253949"/>
    <poly id="119943429" type="building.yes" color="255,230,230" fill="1" layer="-1.00" shape="1642.317206,1151.781821 1649.888401,1153.386221 1654.458352,1131.978300 1646.895974,1130.373904 1642.317206,1151.781821"/>
    <poly id="119943430" type="building.yes" color="255,230,230" fill="1" layer="-1.00" shape="1772.842675,1473.680094 1798.065091,1478.052207 1799.992620,1467.015123 1774.770171,1462.643004 1772.842675,1473.680094"/>
    <poly id="119943432" type="building.yes" color="255,230,230" fill="1" layer="-1.00" shape="1707.061827,1539.309625 1729.713578,1542.891501 1733.374829,1519.951766 1710.723016,1516.369880 1707.061827,1539.309625"/>
    <poly id="119943435" type="building.yes" color="255,230,230" fill="1" layer="-1.00" shape="1619.129256,1202.927995 1633.156180,1208.387904 1641.751070,1172.106108 1639.250917,1171.560237 1636.741927,1171.014358 1634.232937,1170.468480 1631.732783,1169.922611 1626.793098,1189.876858 1623.877977,1188.964506 1622.235309,1197.849583 1620.229012,1198.391404 1619.129256,1202.927995"/>
    <poly id="119943437" type="building.yes" color="255,230,230" fill="1" layer="-1.00" shape="1651.021073,1200.604673 1647.673720,1208.689419 1671.178042,1218.318304 1674.516568,1210.244654 1651.021073,1200.604673"/>
    <poly id="119943442" type="building.yes" color="255,230,230" fill="1" layer="-1.00" shape="1646.719065,1120.766063 1658.592708,1123.295175 1662.071082,1107.156076 1650.197426,1104.615866 1646.719065,1120.766063"/>
    <poly id="119943453" type="building.yes" color="255,230,230" fill="1" layer="-1.00" shape="1760.855998,1034.822080 1759.288441,1048.344623 1767.381660,1049.283947 1767.737946,1046.188958 1785.285057,1048.202010 1784.919909,1051.319179 1793.825982,1052.348029 1795.402461,1038.792218 1788.493171,1037.998179 1767.765293,1035.616096 1760.855998,1034.822080"/>
    <poly id="119943457" type="building.yes" color="255,230,230" fill="1" layer="-1.00" shape="1703.595695,1298.626177 1700.997240,1309.085767 1704.257067,1309.832044 1707.508056,1310.578314 1710.767892,1311.313500 1714.027717,1312.059781 1717.278715,1312.794961 1720.538538,1313.541245 1723.789535,1314.276427 1733.560175,1316.504188 1736.016746,1306.643572 1703.595695,1298.626177"/>
    <poly id="119943458" type="building.yes" color="255,230,230" fill="1" layer="-1.00" shape="1784.904772,1549.520878 1802.061531,1552.088328 1805.235233,1531.078589 1788.069595,1528.511124 1784.904772,1549.520878"/>
    <poly id="119943474" type="building.yes" color="255,230,230" fill="1" layer="-1.00" shape="1712.716263,1569.014277 1714.367973,1559.929523 1716.152930,1550.068288 1706.594166,1548.339984 1703.157510,1567.297071 1712.716263,1569.014277"/>
    <poly id="119943476" type="building.yes" color="255,230,230" fill="1" layer="-1.00" shape="1699.658707,1586.598028 1709.217438,1588.315230 1712.716263,1569.014277 1703.157510,1567.297071 1699.658707,1586.598028"/>
    <poly id="119943485" type="building.yes" color="255,230,230" fill="1" layer="-1.00" shape="1598.832683,1163.314176 1598.593083,1164.456677 1596.578503,1174.251160 1601.667225,1175.287486 1600.149674,1182.619474 1599.054186,1182.396607 1598.211076,1186.500752 1609.183599,1188.751629 1610.062188,1184.503291 1609.169893,1184.324982 1610.616494,1177.292479 1615.060280,1178.206197 1617.367709,1167.036285 1608.100198,1165.175225 1598.832683,1163.314176"/>
    <poly id="119943488" type="building.yes" color="255,230,230" fill="1" layer="-1.00" shape="1704.337870,1279.211784 1703.434338,1271.955277 1711.452295,1267.968599 1742.611062,1274.709026 1748.820063,1258.383847 1752.460283,1258.664529 1756.109339,1258.945221 1758.026022,1259.767952 1759.933879,1260.579582 1758.561009,1264.161793 1757.196976,1267.744013 1755.824108,1271.326225 1754.451241,1274.908437 1753.078375,1278.490650 1751.714347,1282.072870 1750.341483,1285.655083 1748.968621,1289.237296 1704.337870,1279.211784"/>
    <poly id="119943490" type="building.yes" color="255,230,230" fill="1" layer="-1.00" shape="1752.597015,1060.564450 1751.580701,1070.393089 1766.282944,1071.893165 1765.623212,1078.282890 1775.006480,1079.245591 1775.808890,1071.447019 1785.165656,1072.409706 1786.039337,1063.989919 1752.597015,1060.564450"/>
    <poly id="119943491" type="building.yes" color="255,230,230" fill="1" layer="-1.00" shape="1776.740428,1453.159160 1801.715724,1457.286982 1803.457137,1446.871010 1778.481810,1442.743183 1776.740428,1453.159160"/>
    <poly id="119943493" type="building.yes" color="255,230,230" fill="1" layer="-1.00" shape="1732.875919,1563.252473 1743.097242,1565.092355 1746.818164,1544.571243 1736.596816,1542.731356 1734.669733,1553.391249 1732.875919,1563.252473"/>
    <poly id="119943494" type="building.yes" color="255,230,230" fill="1" layer="-1.00" shape="1632.331510,1113.308831 1641.262817,1115.702141 1644.552003,1103.556821 1635.620694,1101.152412 1632.331510,1113.308831"/>
    <poly id="119943497" type="building.yes" color="255,230,230" fill="1" layer="-1.00" shape="1621.546853,1147.769199 1636.530454,1150.700466 1640.738086,1129.292212 1625.763274,1126.372039 1621.546853,1147.769199"/>
    <poly id="119943499" type="building.yes" color="255,230,230" fill="1" layer="-1.00" shape="1681.790473,1227.846827 1695.455365,1232.940401 1706.067187,1184.678631 1703.151812,1184.054703 1700.236426,1183.441871 1697.321050,1182.817945 1694.405663,1182.205115 1691.490286,1181.581191 1689.660990,1191.564424 1692.938385,1192.477127 1687.445471,1218.233168 1683.982356,1217.508902 1681.790473,1227.846827"/>
    <poly id="119943508" type="building.yes" color="255,230,230" fill="1" layer="-1.00" shape="1808.355547,1039.869178 1806.761333,1053.469348 1814.863379,1054.408726 1815.228528,1051.302653 1832.775597,1053.337994 1832.401585,1056.466247 1839.399198,1057.282593 1840.993485,1043.660241 1834.464134,1042.899798 1814.884902,1040.629601 1808.355547,1039.869178"/>
    <poly id="119943523" type="building.yes" color="255,230,230" fill="1" layer="-1.00" shape="1652.982676,1533.946521 1668.010240,1536.334266 1672.159910,1510.499326 1657.132301,1508.111574 1652.982676,1533.946521"/>
    <poly id="119943536" type="building.yes" color="255,230,230" fill="1" layer="-1.00" shape="1714.367973,1559.929523 1732.875919,1563.252473 1734.669733,1553.391249 1716.152930,1550.068288 1714.367973,1559.929523"/>
    <poly id="119943540" type="building.yes" color="255,230,230" fill="1" layer="-1.00" shape="1647.133262,1573.303925 1661.454185,1575.369287 1665.357286,1548.568914 1651.036317,1546.503545 1647.133262,1573.303925"/>
    <poly id="119943557" type="amenity.place_of_worship" color="237,199,199" fill="1" layer="-1.00" shape="1629.768554,1654.654111 1640.067010,1629.590187 1635.269884,1619.024071 1623.513690,1614.398266 1614.064752,1618.350463 1604.110068,1644.402122 1611.229267,1647.048951 1609.732347,1651.163605 1621.321058,1655.301090 1622.649218,1652.173681 1629.768554,1654.654111"/>
    <poly id="119943557#1" type="building.yes" color="255,230,230" fill="1" layer="-1.00" shape="1629.768554,1654.654111 1640.067010,1629.590187 1635.269884,1619.024071 1623.513690,1614.398266 1614.064752,1618.350463 1604.110068,1644.402122 1611.229267,1647.048951 1609.732347,1651.163605 1621.321058,1655.301090 1622.649218,1652.173681 1629.768554,1654.654111"/>
    <poly id="119943558" type="building.yes" color="255,230,230" fill="1" layer="-1.00" shape="1768.908797,1504.729514 1771.815340,1505.220325 1774.721884,1505.711138 1777.619591,1506.201943 1780.526134,1506.692757 1783.432686,1507.172478 1786.339229,1507.663295 1789.236935,1508.154104 1792.143476,1508.644923 1794.258682,1495.278200 1790.804364,1494.731407 1774.972779,1492.253949 1770.979543,1491.629009 1768.908797,1504.729514"/>
    <poly id="119943560" type="building.yes" color="255,230,230" fill="1" layer="-1.00" shape="1818.114460,1083.933706 1831.411995,1085.110869 1832.867432,1068.725901 1819.569871,1067.548736 1818.114460,1083.933706"/>
    <poly id="119943574" type="building.yes" color="255,230,230" fill="1" layer="-1.00" shape="1570.517792,1157.530937 1568.022994,1170.797522 1590.012273,1175.299250 1592.514879,1163.219771 1592.745632,1162.088357 1581.631710,1159.815187 1570.517792,1157.530937"/>
    <poly id="119943575" type="building.yes" color="255,230,230" fill="1" layer="-1.00" shape="1673.014830,1258.681109 1676.127785,1245.980923 1691.427330,1251.075969 1697.434727,1252.357260 1696.521983,1255.252051 1693.791949,1254.894558 1693.604581,1256.891367 1677.749665,1260.138745 1673.014830,1258.681109"/>
    <poly id="119943577" type="building.yes" color="255,230,230" fill="1" layer="-1.00" shape="1835.388220,1506.332741 1833.842181,1515.650549 1848.622231,1518.138241 1863.402283,1520.614865 1864.966118,1511.197230 1835.388220,1506.332741"/>
    <poly id="121522000" type="building.yes" color="255,230,230" fill="1" layer="-1.00" shape="1639.770932,1565.853003 1642.514816,1560.530195 1640.280701,1559.041545 1640.903669,1554.082941 1627.841113,1547.869467 1629.719645,1541.924595 1642.786003,1543.922231 1645.281469,1529.923436 1640.678461,1529.420048 1639.302551,1536.485896 1622.508028,1533.863636 1613.151023,1553.436729 1639.770932,1565.853003"/>
    <poly id="121522007" type="building.yes" color="255,230,230" fill="1" layer="-1.00" shape="1762.452390,1540.536097 1764.807589,1525.549814 1768.412094,1526.107829 1768.154353,1527.749553 1775.328017,1528.865555 1774.919192,1531.461253 1776.297385,1531.673308 1774.902032,1540.547492 1776.271388,1540.759539 1775.898099,1543.144477 1771.931385,1542.530656 1771.726973,1543.828505 1764.500317,1542.701364 1764.784706,1540.904343 1762.452390,1540.536097"/>
    <poly id="121522014" type="building.yes" color="255,230,230" fill="1" layer="-1.00" shape="1811.981986,1602.410235 1812.071894,1591.127385 1806.408211,1591.088891 1806.438780,1586.673376 1807.711118,1586.685641 1807.741586,1582.381069 1809.075775,1582.393391 1809.125629,1576.224990 1817.431195,1576.288108 1817.331269,1588.846797 1825.168537,1588.898397 1825.349044,1565.622662 1828.697781,1565.647939 1828.678769,1567.101278 1837.293585,1567.175796 1837.032595,1601.024353 1837.022304,1602.599738 1811.981986,1602.410235"/>
    <poly id="121522022" type="building.yes" color="255,230,230" fill="1" layer="-1.00" shape="1755.740801,1584.918369 1757.296194,1574.923800 1762.561578,1575.727406 1763.779212,1567.929207 1762.630724,1567.750647 1763.883935,1559.697311 1759.387152,1559.005350 1760.071504,1554.634811 1769.586314,1556.096872 1769.355213,1557.594395 1774.761949,1558.431421 1774.477568,1560.217347 1776.854057,1560.585637 1775.511927,1569.237984 1773.418144,1568.914330 1772.787085,1572.974276 1777.707916,1573.733199 1775.779201,1586.123797 1761.343602,1583.902812 1761.059174,1585.744211 1755.740801,1584.918369"/>
    <poly id="121522024" type="building.yes" color="255,230,230" fill="1" layer="-1.00" shape="1425.781430,1470.007928 1435.223164,1474.376256 1440.294600,1464.695350 1427.292946,1459.236660 1425.781430,1470.007928"/>
    <poly id="121522026" type="building.yes" color="255,230,230" fill="1" layer="-1.00" shape="1528.951899,1496.847162 1549.482658,1501.081231 1551.426013,1491.741536 1530.895222,1487.518557 1528.951899,1496.847162"/>
    <poly id="121522032" type="building.yes" color="255,230,230" fill="1" layer="-1.00" shape="1550.203924,1624.029212 1537.362409,1607.742425 1533.170731,1611.732664 1536.117428,1626.690433 1550.203924,1624.029212"/>
    <poly id="121522035" type="building.yes" color="255,230,230" fill="1" layer="-1.00" shape="1507.037100,1508.976053 1519.482074,1514.312338 1521.722127,1509.133271 1509.285982,1503.796990 1507.037100,1508.976053"/>
    <poly id="121522038" type="building.yes" color="255,230,230" fill="1" layer="-1.00" shape="1539.750725,1525.113992 1562.766380,1536.905537 1567.475144,1527.801289 1544.459471,1516.009731 1539.750725,1525.113992"/>
    <poly id="121522043" type="building.yes" color="255,230,230" fill="1" layer="-1.00" shape="1565.441810,1588.540922 1572.904951,1591.986815 1575.091556,1587.306959 1567.628422,1583.849969 1565.441810,1588.540922"/>
    <poly id="121522075" type="building.yes" color="255,230,230" fill="1" layer="-1.00" shape="1504.194774,1505.789469 1509.962051,1478.668939 1498.247868,1476.195649 1495.364238,1489.761465 1492.471791,1503.316180 1504.194774,1505.789469"/>
    <poly id="121522090" type="building.yes" color="255,230,230" fill="1" layer="-1.00" shape="1529.706645,1612.273215 1522.426970,1601.205719 1527.281879,1596.594779 1537.362409,1607.742425 1533.170731,1611.732664 1529.706645,1612.273215"/>
    <poly id="121522109" type="building.yes" color="255,230,230" fill="1" layer="-1.00" shape="1451.906824,1482.711618 1459.175844,1486.013012 1459.312513,1481.309138 1456.856863,1480.486002 1457.547853,1478.445253 1454.235377,1477.332913 1451.906824,1482.711618"/>
    <poly id="121522116" type="building.yes" color="255,230,230" fill="1" layer="-1.00" shape="1622.904024,1525.820604 1633.099279,1527.249837 1634.744369,1515.613367 1646.927435,1517.332857 1648.492484,1506.295411 1626.114111,1503.157776 1622.904024,1525.820604"/>
    <poly id="121522126" type="building.yes" color="255,230,230" fill="1" layer="-1.00" shape="1532.777097,1637.138328 1555.011264,1633.164120 1556.983314,1631.268744 1550.203924,1624.029212 1536.117428,1626.690433 1531.071383,1627.651164 1532.777097,1637.138328"/>
    <poly id="121522128" type="building.yes" color="255,230,230" fill="1" layer="-1.00" shape="1612.311115,1524.435404 1616.564369,1501.141132 1594.063101,1497.071550 1589.123112,1507.795347 1603.762153,1509.971837 1601.913037,1522.551148 1612.311115,1524.435404"/>
    <poly id="121522130" type="building.yes" color="255,230,230" fill="1" layer="-1.00" shape="1426.507676,1387.189427 1457.291686,1397.833660 1460.604682,1388.328733 1440.994774,1381.543997 1447.354686,1363.654425 1435.631632,1361.014802 1426.507676,1387.189427"/>
    <poly id="121522135" type="building.yes" color="255,230,230" fill="1" layer="-1.00" shape="1459.175844,1486.013012 1459.312513,1481.309138 1458.771001,1474.119539 1462.056503,1475.764385 1460.683952,1479.169137 1469.030255,1483.259184 1466.011951,1489.258561 1459.175844,1486.013012"/>
    <poly id="121522153" type="building.yes" color="255,230,230" fill="1" layer="-1.00" shape="1603.577025,1548.968231 1608.808859,1537.945156 1610.688492,1530.757716 1598.363758,1529.382077 1597.741707,1533.342195 1590.031588,1529.374625 1595.513042,1515.866636 1586.184064,1514.005544 1575.712159,1535.430436 1603.577025,1548.968231"/>
    <poly id="122055496" type="building.yes" color="255,230,230" fill="1" layer="-1.00" shape="894.811072,1639.315086 890.205792,1630.724347 887.600706,1628.936052 879.183830,1624.535891 883.601248,1614.155173 893.625909,1618.956036 890.211119,1624.145416 894.617226,1627.743546 899.832721,1624.752305 905.038345,1633.931536 894.811072,1639.315086"/>
    <poly id="122055497" type="building.yes" color="255,230,230" fill="1" layer="-1.00" shape="906.854758,1616.770086 902.249468,1608.190435 899.644386,1606.391042 891.227494,1601.990869 895.644930,1591.621252 905.669620,1596.411035 902.254813,1601.600410 906.660927,1605.198546 911.876441,1602.207313 917.082066,1611.386550 906.854758,1616.770086"/>
    <poly id="122055502" type="building.yes" color="255,230,230" fill="1" layer="-1.00" shape="728.683230,1593.351492 730.182395,1597.035993 733.059828,1600.854716 735.929072,1603.852453 738.799175,1605.762948 742.637334,1601.405917 739.625859,1599.495308 737.162628,1597.041513 735.247537,1594.177662 733.748049,1590.903650 728.683230,1593.351492"/>
    <poly id="122055505" type="building.yes" color="255,230,230" fill="1" layer="-1.00" shape="751.252469,1612.185334 754.265019,1612.731345 758.231932,1613.144983 762.208112,1613.015008 766.308540,1612.197285 765.359377,1605.784010 761.798146,1606.324803 757.830790,1606.465880 754.817921,1606.319263 752.220859,1605.507317 751.252469,1612.185334"/>
    <poly id="122055518" type="building.yes" color="255,230,230" fill="1" layer="-1.00" shape="924.096475,1612.812329 918.600020,1624.456901 923.819939,1626.901899 925.289203,1623.785588 930.120503,1626.041670 929.191154,1628.004609 934.729035,1630.594099 935.640686,1628.664429 940.613288,1630.998292 938.949298,1634.524931 943.692258,1636.747666 949.401168,1624.648416 924.096475,1612.812329"/>
    <poly id="122055525" type="building.yes" color="255,230,230" fill="1" layer="-1.00" shape="1166.152711,1558.661706 1167.045724,1547.468284 1151.620093,1545.480505 1153.166200,1535.164083 1167.937814,1537.373199 1167.271800,1541.322217 1173.446544,1543.080328 1173.001975,1546.374968 1180.715247,1546.825252 1180.487494,1554.946106 1184.021807,1554.949092 1183.575941,1559.774747 1169.492458,1558.875314 1166.152711,1558.661706"/>
    <poly id="122055531" type="building.yes" color="255,230,230" fill="1" layer="-1.00" shape="1145.698694,1505.103276 1162.158549,1506.670329 1162.639983,1501.567345 1158.575814,1501.186716 1159.083969,1495.828584 1163.183475,1496.220338 1163.700468,1490.862215 1147.249417,1489.295165 1146.732471,1494.608913 1151.114707,1495.023087 1150.633345,1500.048412 1146.224604,1499.634215 1145.698694,1505.103276"/>
    <poly id="122055547" type="building.yes" color="255,230,230" fill="1" layer="-1.00" shape="1102.586737,1644.888956 1104.362123,1635.016488 1109.662238,1626.012323 1101.510909,1621.179480 1099.077245,1625.781594 1088.275926,1620.070100 1089.603299,1617.652643 1081.230328,1613.696087 1077.921013,1619.406911 1079.237175,1619.840685 1076.812718,1624.010135 1069.755899,1620.498459 1065.561025,1628.616020 1071.292483,1632.126591 1072.840733,1629.720409 1077.910054,1632.575869 1080.998286,1627.086747 1083.205744,1628.852583 1085.630757,1624.017477 1097.094565,1629.951406 1095.325221,1632.590380 1093.549660,1642.684737 1102.586737,1644.888956"/>
    <poly id="122055555" type="building.yes" color="255,230,230" fill="1" layer="-1.00" shape="739.884768,1618.444622 744.133341,1620.223078 746.187982,1614.222675 742.354466,1612.721905 739.884768,1618.444622"/>
    <poly id="122055557" type="building.yes" color="255,230,230" fill="1" layer="-1.00" shape="1114.378279,1523.060917 1129.150111,1525.048078 1131.133390,1520.212615 1117.247704,1515.153064 1114.378279,1523.060917"/>
    <poly id="122055570" type="building.yes" color="255,230,230" fill="1" layer="-1.00" shape="854.495528,1582.279872 859.009499,1583.648111 860.249366,1580.098926 855.726227,1579.141169 854.495528,1582.279872"/>
    <poly id="122055572" type="building.yes" color="255,230,230" fill="1" layer="-1.00" shape="843.380683,1614.577607 841.062586,1607.486469 844.889883,1605.714453 848.038865,1612.395771 843.380683,1614.577607"/>
    <poly id="122055575" type="building.yes" color="255,230,230" fill="1" layer="-1.00" shape="861.093619,1552.153000 859.178891,1548.878631 864.518893,1544.933356 866.839404,1549.029034 861.093619,1552.153000"/>
    <poly id="122055576" type="building.yes" color="255,230,230" fill="1" layer="-1.00" shape="806.422720,1612.229261 807.929921,1605.817946 812.178592,1607.463305 809.841053,1613.596597 806.422720,1612.229261"/>
    <poly id="122055577" type="building.yes" color="255,230,230" fill="1" layer="-1.00" shape="800.555658,1590.279995 803.018331,1593.410563 806.714395,1590.007559 804.666462,1587.554076 800.555658,1590.279995"/>
    <poly id="122055579" type="building.yes" color="255,230,230" fill="1" layer="-1.00" shape="721.421765,1602.620614 724.431526,1606.705702 729.082345,1602.626664 726.620085,1598.941403 721.421765,1602.620614"/>
    <poly id="122055588" type="building.yes" color="255,230,230" fill="1" layer="-1.00" shape="797.799931,1611.124033 797.663893,1604.445140 801.092156,1604.447878 800.671648,1610.993195 797.799931,1611.124033"/>
    <poly id="122055589" type="building.yes" color="255,230,230" fill="1" layer="-1.00" shape="844.356604,1598.624750 841.753896,1593.852097 843.672564,1592.222774 846.681938,1596.718396 844.356604,1598.624750"/>
    <poly id="122055591" type="building.yes" color="255,230,230" fill="1" layer="-1.00" shape="801.111753,1579.918339 796.180205,1581.412135 797.273332,1584.552702 801.657504,1582.503753 801.111753,1579.918339"/>
    <poly id="122055593" type="building.yes" color="255,230,230" fill="1" layer="-1.00" shape="715.131782,1590.067969 721.565921,1587.898558 722.800132,1591.438622 716.771897,1594.296201 715.131782,1590.067969"/>
    <poly id="122055594" type="building.yes" color="255,230,230" fill="1" layer="-1.00" shape="819.698989,1617.010447 820.111218,1609.788371 824.493302,1610.335505 824.487512,1617.557906 819.698989,1617.010447"/>
    <poly id="122055596" type="building.yes" color="255,230,230" fill="1" layer="-1.00" shape="865.724964,1572.337313 865.595730,1568.243402 872.028716,1567.571840 872.024981,1572.198171 865.724964,1572.337313"/>
    <poly id="122055600" type="building.yes" color="255,230,230" fill="1" layer="-1.00" shape="767.537851,1621.872515 772.195357,1620.511616 770.141188,1614.785310 766.579634,1615.736591 767.537851,1621.872515"/>
    <poly id="122055607" type="building.yes" color="255,230,230" fill="1" layer="-1.00" shape="863.391379,1584.461529 864.622958,1580.235584 870.788883,1582.015651 869.548242,1586.518946 863.391379,1584.461529"/>
    <poly id="122055608" type="building.yes" color="255,230,230" fill="1" layer="-1.00" shape="784.242015,1616.028005 781.101386,1609.890340 784.389796,1607.984736 787.115145,1614.122070 784.242015,1616.028005"/>
    <poly id="122055614" type="building.yes" color="255,230,230" fill="1" layer="-1.00" shape="818.888402,1603.108607 819.988406,1597.651079 822.311769,1598.196563 821.485787,1603.510083 818.888402,1603.108607"/>
    <poly id="122055615" type="building.yes" color="255,230,230" fill="1" layer="-1.00" shape="850.420912,1540.018306 847.003323,1537.696842 850.568875,1531.830813 854.401632,1534.296839 850.420912,1540.018306"/>
    <poly id="122055622" type="building.yes" color="255,230,230" fill="1" layer="-1.00" shape="808.077503,1598.052035 810.947591,1599.962555 813.558058,1595.060952 811.226514,1593.694484 808.077503,1598.052035"/>
    <poly id="122055624" type="building.yes" color="255,230,230" fill="1" layer="-1.00" shape="731.265205,1613.256754 735.371657,1615.989205 738.521272,1610.810647 734.829879,1608.355880 731.265205,1613.256754"/>
    <poly id="122055635" type="building.yes" color="255,230,230" fill="1" layer="-1.00" shape="834.207343,1616.888951 832.710962,1609.798475 836.952770,1608.980901 838.996962,1616.071817 834.207343,1616.888951"/>